/*--------------------------------*- C++ -*----------------------------------*\
| =========                 |                                                 |
| \\      /  F ield         | OpenFOAM: The Open Source CFD Toolbox           |
|  \\    /   O peration     | Version:  v2006                                 |
|   \\  /    A nd           | Website:  www.openfoam.com                      |
|    \\/     M anipulation  |                                                 |
\*---------------------------------------------------------------------------*/
FoamFile
{
    version     2.0;
    format      ascii;
    class       polyBoundaryMesh;
    location    "1/polyMesh";
    object      boundary;
}
// * * * * * * * * * * * * * * * * * * * * * * * * * * * * * * * * * * * * * //

3
(
    valueBoundary
    {
        type            patch;
        nFaces          16;
        startFace       64;
    }
    zeroGradBoundary
    {
        type            patch;
        nFaces          16;
        startFace       80;
    }
    emptyBoundary
    {
        type            empty;
        inGroups        1(empty);
        nFaces          32;
        startFace       96;
    }
)

// ************************************************************************* //
